-------------------------------------------------------
          Amber 16 PMEMD                              2016
          -------------------------------------------------------

  [-O]verwriting output

File Assignments:

 Here is the input file:

pressurising
 &cntrl
   imin = 0, nstlim = 10000, irest = 1, ntx = 5, dt = 0.002,
   ntt = 3, temp0 = 300.0, gamma_ln = 2.0, ig = -1,
   tautp = 1.0,
   vlimit = 20,
   ntp = 1, pres0 = 1.0, taup = 2.0,
   ntb = 2,
   ntc = 2, ntf = 1,
   ioutfm = 1, iwrap = 1,
   ntwe = 1000, ntwx = 1000, ntpr = 1000, ntwr = 5000,

   ntr = 1, restraint_wt = 5.00,
   restraintmask='!:WAT & !@H='
 /
 &ewald
 /

Note: ig = -1. Setting random seed to   593067 based on wallclock time in
      microseconds.

--------------------------------------------------------------------------------
   1.  RESOURCE   USE:
--------------------------------------------------------------------------------

 getting box info from netcdf restart file
 NATOM  =   24916 NTYPES =      16 NBONH =   23615 MBONA  =    1317
 NTHETH =   25276 MTHETA =    1773 NPHIH =    6041 MPHIA  =    5529
 NHPARM =       0 NPARM  =       0 NNB   =   44093 NRES   =    7599
 NBONA  =    1317 NTHETA =    1773 NPHIA =    5529 NUMBND =      69
 NUMANG =     155 NPTRA  =     186 NATYP =      38 NPHB   =       0
 IFBOX  =       1 NMXRS  =      24 IFCAP =       0 NEXTRA =       0
 NCOPY  =       0

     BOX TYPE: RECTILINEAR

--------------------------------------------------------------------------------
   2.  CONTROL  DATA  FOR  THE  RUN
--------------------------------------------------------------------------------

NIL

General flags:
     imin    =       0, nmropt  =       0

Nature and format of input:
     ntx     =       5, irest   =       1, ntrx    =       1

Nature and format of output:
     ntxo    =       2, ntpr    =    1000, ntrx    =       1, ntwr    =    5000
     iwrap   =       1, ntwx    =    1000, ntwv    =       0, ntwe    =    1000
     ioutfm  =       1, ntwprt  =       0, idecomp =       0, rbornstat=      0

Potential function:
     ntf     =       1, ntb     =       2, igb     =       0, nsnb    =      25
     ipol    =       0, gbsa    =       0, iesp    =       0
     dielc   =   1.00000, cut     =   8.00000, intdiel =   1.00000

Frozen or restrained atoms:
     ibelly  =       0, ntr     =       1
     restraint_wt =   5.00000

Molecular dynamics:
     nstlim  =     10000, nscm    =         0, nrespa  =         1
     t       =   0.00000, dt      =   0.00200, vlimit  =  20.00000

Langevin dynamics temperature regulation:
     ig      =  593067
     temp0   = 300.00000, tempi   =   0.00000, gamma_ln=   2.00000

Pressure regulation:
     ntp     =       1
     pres0   =   1.00000, comp    =  44.60000, taup    =   2.00000

SHAKE:
     ntc     =       2, jfastw  =       0
     tol     =   0.00001

Ewald parameters:
     verbose =       0, ew_type =       0, nbflag  =       1, use_pme =       1
     vdwmeth =       1, eedmeth =       1, netfrc  =       1
     Box X =   60.763   Box Y =   64.852   Box Z =   73.381
     Alpha =   90.000   Beta  =   90.000   Gamma =   90.000
     NFFT1 =   64       NFFT2 =   72       NFFT3 =   75
     Cutoff=    8.000   Tol   =0.100E-04
     Ewald Coefficient =  0.34864
     Interpolation order =    4

    LOADING THE CONSTRAINED ATOMS AS GROUPS

   5.  REFERENCE ATOM COORDINATES

  NIL
     Mask !:WAT & !@H=; matches  1301 atoms

--------------------------------------------------------------------------------
   3.  ATOMIC COORDINATES AND VELOCITIES
--------------------------------------------------------------------------------

NIL
 begin time read from input coords =    20.000 ps

 Number of triangulated 3-point waters found:     7432

     Sum of charges from parm topology file =   0.00039182
     Forcing neutrality...

--------------------------------------------------------------------------------
   4.  RESULTS
 NSTEP =     1000   TIME(PS) =      22.000  TEMP(K) =   300.54  PRESS =  -738.1
 Etot   =    -57229.6198  EKtot   =     15268.8941  EPtot      =    -72498.5139
 BOND   =       520.0685  ANGLE   =      1231.3640  DIHED      =      2043.2616
 1-4 NB =       667.0586  1-4 EEL =      6022.6151  VDWAALS    =      8725.6638
 EELEC  =    -91972.1655  EHBOND  =         0.0000  RESTRAINT  =       263.6199
 EAMBER (non-restraint)  =    -72762.1338
 EKCMT  =      6634.8734  VIRIAL  =     11074.3432  VOLUME     =    278588.5444
                                                    Density    =         0.9088
 Ewald error estimate:   0.8107E-05
 ------------------------------------------------------------------------------

      A V E R A G E S   O V E R      10 S T E P S

 NSTEP =    10000   TIME(PS) =      40.000  TEMP(K) =   299.65  PRESS =  -279.2
 Etot   =    -58475.9456  EKtot   =     15223.8790  EPtot      =    -73699.8245
 BOND   =       499.0132  ANGLE   =      1228.2420  DIHED      =      2051.3973
 1-4 NB =       664.0737  1-4 EEL =      6001.8686  VDWAALS    =      8781.3706
 EELEC  =    -93189.7888  EHBOND  =         0.0000  RESTRAINT  =       263.9989
 EAMBER (non-restraint)  =    -73963.8234
 EKCMT  =      6653.2111  VIRIAL  =      8258.0968  VOLUME     =    258748.5983
                                                    Density    =         0.9797
 Ewald error estimate:   0.6909E-04
 ------------------------------------------------------------------------------

      R M S  F L U C T U A T I O N S

 NSTEP =    10000   TIME(PS) =      40.000  TEMP(K) =     1.73  PRESS =   280.7
 Etot   =       562.4133  EKtot   =        87.6698  EPtot      =       571.7374
 BOND   =        17.0780  ANGLE   =        24.1472  DIHED      =        15.5672
 1-4 NB =         5.1984  1-4 EEL =        20.0012  VDWAALS    =       109.2446
 EELEC  =       593.7485  EHBOND  =         0.0000  RESTRAINT  =         9.1933
 EAMBER (non-restraint)  =       562.5441
 EKCMT  =        79.1320  VIRIAL  =      1599.2622  VOLUME     =      9082.7519
                                                    Density    =         0.0332
 Ewald error estimate:   0.5958E-04
 ------------------------------------------------------------------------------
