-------------------------------------------------------
          Amber 16 PMEMD                              2016
          -------------------------------------------------------

  [-O]verwriting output

File Assignments:

 Here is the input file:

pressurising
 &cntrl
   imin = 0, nstlim = 100000, irest = 1, ntx = 5, dt = 0.001,
   ntt = 3, temp0 = 300.0, gamma_ln = 2.0, ig = -1,
   tautp = 1.0,
   vlimit = 20,
   ntp = 1, pres0 = 1.0, taup = 2.0,
   ntb = 2,
   ntc = 2, ntf = 1,
   ioutfm = 1, iwrap = 1,
   ntwe = 1000, ntwx = 1000, ntpr = 1000, ntwr = 50000,

   ntr = 1, restraint_wt = 5.00,
   restraintmask='!:WAT & !@H=',

   icfe = 1, ifsc = 1, clambda = 0.5, scalpha = 0.5, scbeta = 12.0,
   logdvdl = 0,
   timask1 = ':1', timask2 = ':2',
   scmask1 = ':1@C0,H24,H25,H26,C2,C3,H27,H28,H29,H30,H31,H32', scmask2 = ':2@H
 /
 &ewald
 /

Note: ig = -1. Setting random seed to   318783 based on wallclock time in
      microseconds.

--------------------------------------------------------------------------------
   1.  RESOURCE   USE:
--------------------------------------------------------------------------------

 getting box info from netcdf restart file
 NATOM  =   44306 NTYPES =      16 NBONH =   41542 MBONA  =    2809
 NTHETH =   45097 MTHETA =    3800 NPHIH =   12893 MPHIA  =   12082
 NHPARM =       0 NPARM  =       0 NNB   =   82393 NRES   =   13264
 NBONA  =    2809 NTHETA =    3800 NPHIA =   12082 NUMBND =      79
 NUMANG =     183 NPTRA  =     213 NATYP =      44 NPHB   =       0
 IFBOX  =       1 NMXRS  =      51 IFCAP =       0 NEXTRA =       0
 NCOPY  =       0

     BOX TYPE: RECTILINEAR

--------------------------------------------------------------------------------
   2.  CONTROL  DATA  FOR  THE  RUN
--------------------------------------------------------------------------------

NIL

General flags:
     imin    =       0, nmropt  =       0

Nature and format of input:
     ntx     =       5, irest   =       1, ntrx    =       1

Nature and format of output:
     ntxo    =       2, ntpr    =    1000, ntrx    =       1, ntwr    =   50000
     iwrap   =       1, ntwx    =    1000, ntwv    =       0, ntwe    =    1000
     ioutfm  =       1, ntwprt  =       0, idecomp =       0, rbornstat=      0

Potential function:
     ntf     =       1, ntb     =       2, igb     =       0, nsnb    =      25
     ipol    =       0, gbsa    =       0, iesp    =       0
     dielc   =   1.00000, cut     =   8.00000, intdiel =   1.00000

Frozen or restrained atoms:
     ibelly  =       0, ntr     =       1
     restraint_wt =   5.00000

Molecular dynamics:
     nstlim  =    100000, nscm    =         0, nrespa  =         1
     t       =   0.00000, dt      =   0.00100, vlimit  =  20.00000

Langevin dynamics temperature regulation:
     ig      =  318783
     temp0   = 300.00000, tempi   =   0.00000, gamma_ln=   2.00000

Pressure regulation:
     ntp     =       1
     pres0   =   1.00000, comp    =  44.60000, taup    =   2.00000

SHAKE:
     ntc     =       2, jfastw  =       0
     tol     =   0.00001

Free energy options:
     icfe    =       1, ifsc    =       1, klambda =       1
     clambda =  0.5000, scalpha =  0.5000, scbeta  = 12.0000
     sceeorder =       2
     dynlmb =  0.0000 logdvdl =       0

Ewald parameters:
     verbose =       0, ew_type =       0, nbflag  =       1, use_pme =       1
     vdwmeth =       1, eedmeth =       1, netfrc  =       1
     Box X =   75.727   Box Y =   73.558   Box Z =   91.614
     Alpha =   90.000   Beta  =   90.000   Gamma =   90.000
     NFFT1 =   80       NFFT2 =   80       NFFT3 =   96
     Cutoff=    8.000   Tol   =0.100E-04
     Ewald Coefficient =  0.34864
     Interpolation order =    4

    LOADING THE CONSTRAINED ATOMS AS GROUPS

   5.  REFERENCE ATOM COORDINATES

  NIL
     Mask !:WAT & !@H=; matches  2764 atoms
     TI Mask 1 :1; matches     51 atoms
     TI Mask 2 :2; matches     42 atoms
     TI region 1:   44264 atoms
     TI region 2:   44255 atoms
     SC Mask 1 :1@C0,H24,H25,H26,C2,C3,H27,H28,H29,H30,H31,H32; matches     12 atoms
     SC Mask 2 :2@H36,H39,H40; matches      3 atoms

--------------------------------------------------------------------------------
   3.  ATOMIC COORDINATES AND VELOCITIES
--------------------------------------------------------------------------------

NIL
 begin time read from input coords =   100.000 ps

     Molecule     1 is partially softcore
     Molecule     2 is partially softcore
 Number of triangulated 3-point waters found:    12913
   Removing shake constraints from H36   !00   2 -- C16   !00   2
   Removing shake constraints from H39   !00   2 -- C16   !00   2
   Removing shake constraints from H40   !00   2 -- C16   !00   2
 Number of shake restraints removed in TI region  1 :        0
 Number of shake restraints removed in TI region  2 :        3

     Sum of charges for TI region  1 =  -0.00211371
     Forcing neutrality...

     Sum of charges for TI region  2 =  -0.00211371
     Forcing neutrality...

--------------------------------------------------------------------------------
   4.  RESULTS
 NSTEP =     1000   TIME(PS) =     101.000  TEMP(K) =   299.57  PRESS =  -754.0
 Etot   =    -99027.6258  EKtot   =     27167.0138  EPtot      =   -126194.6396
 BOND   =       985.1787  ANGLE   =      2623.2473  DIHED      =      4413.9830
 1-4 NB =      1345.5632  1-4 EEL =     13608.0091  VDWAALS    =     14161.4805
 EELEC  =   -163884.1944  EHBOND  =         0.0000  RESTRAINT  =       552.0929
 EAMBER (non-restraint)  =   -126746.7325
 EKCMT  =     11684.8429  VIRIAL  =     19848.8314  VOLUME     =    501463.6399
                                                    Density    =         0.8996
 DV/DL  =         1.0462
 ------------------------------------------------------------------------------

      A V E R A G E S   O V E R     100 S T E P S

 NSTEP =   100000   TIME(PS) =     200.000  TEMP(K) =   300.40  PRESS =   -79.6
 Etot   =   -101619.2984  EKtot   =     27242.5191  EPtot      =   -128861.8175
 BOND   =       990.8528  ANGLE   =      2635.9687  DIHED      =      4431.5438
 1-4 NB =      1354.0086  1-4 EEL =     13583.8958  VDWAALS    =     14700.1339
 EELEC  =   -167108.9984  EHBOND  =         0.0000  RESTRAINT  =       550.7774
 EAMBER (non-restraint)  =   -129412.5949
 EKCMT  =     11580.9690  VIRIAL  =     12382.8304  VOLUME     =    447739.6618
                                                    Density    =         1.0083
 DV/DL  =         2.0476
 ------------------------------------------------------------------------------

      R M S  F L U C T U A T I O N S

 NSTEP =   100000   TIME(PS) =     200.000  TEMP(K) =     1.55  PRESS =   175.9
 Etot   =       605.5285  EKtot   =       140.1174  EPtot      =       603.3302
 BOND   =        24.3160  ANGLE   =        34.9213  DIHED      =        18.9919
 1-4 NB =        12.5767  1-4 EEL =        34.0966  VDWAALS    =       176.1061
 EELEC  =       668.1363  EHBOND  =         0.0000  RESTRAINT  =        16.1738
 EAMBER (non-restraint)  =       587.1564
 EKCMT  =        74.0288  VIRIAL  =      1769.3901  VOLUME     =     12129.8148
                                                    Density    =         0.0256
 DV/DL  =         3.5380
 ------------------------------------------------------------------------------

      A V E R A G E S   O V E R     100 S T E P S

 NSTEP =   100000   TIME(PS) =     200.000  TEMP(K) =   300.40  PRESS =   -79.6
 Etot   =   -101624.5192  EKtot   =     27237.2983  EPtot      =   -128861.8175
 BOND   =       990.8528  ANGLE   =      2635.9687  DIHED      =      4431.5438
 1-4 NB =      1354.0086  1-4 EEL =     13583.8958  VDWAALS    =     14700.1339
 EELEC  =   -167108.9984  EHBOND  =         0.0000  RESTRAINT  =       550.7774
 EAMBER (non-restraint)  =   -129412.5949
 EKCMT  =     11580.9690  VIRIAL  =     12382.8304  VOLUME     =    447739.6618
                                                    Density    =         1.0081
 DV/DL  =         2.0476
 ------------------------------------------------------------------------------

      R M S  F L U C T U A T I O N S

 NSTEP =   100000   TIME(PS) =     200.000  TEMP(K) =     1.55  PRESS =   175.9
 Etot   =       605.2460  EKtot   =       140.1181  EPtot      =       603.3302
 BOND   =        24.3160  ANGLE   =        34.9213  DIHED      =        18.9919
 1-4 NB =        12.5767  1-4 EEL =        34.0966  VDWAALS    =       176.1061
 EELEC  =       668.1363  EHBOND  =         0.0000  RESTRAINT  =        16.1738
 EAMBER (non-restraint)  =       587.1564
 EKCMT  =        74.0288  VIRIAL  =      1769.3901  VOLUME     =     12129.8148
                                                    Density    =         0.0256
 DV/DL  =         3.5380
 ------------------------------------------------------------------------------

      DV/DL, AVERAGES OVER     100 STEPS

 NSTEP =   100000   TIME(PS) =     200.000  TEMP(K) =     1.55  PRESS =     0.0
 Etot   =         0.0000  EKtot   =         0.0000  EPtot      =         2.0476
 BOND   =         0.0000  ANGLE   =         0.0000  DIHED      =         0.0000
 1-4 NB =         0.0000  1-4 EEL =        -0.0718  VDWAALS    =         7.2603
 EELEC  =         5.4969  EHBOND  =         0.0000  RESTRAINT  =         0.0000
 EKCMT  =         0.0000  VIRIAL  =         0.0000  VOLUME     =         0.0000
                                                    Density    =         0.0000
 DV/DL  =         2.0476
 ------------------------------------------------------------------------------
